**$ENCRYPTED_LIB
**$INTERFACE
* PSpice Model Editor - Version 16.0.0
*
*$
*LM4041_N
*****************************************************************************
*  (C) Copyright 2013 Texas Instruments Incorporated. All rights reserved.
*****************************************************************************
** This model is designed as an aid for customers of Texas Instruments.
** TI and its licensors and suppliers make no warranties, either expressed
** or implied, with respect to this model, including the warranties of 
** merchantability or fitness for a particular purpose.  The model is
** provided solely on an "as is" basis.  The entire risk as to its quality
** and performance is with the customer
*****************************************************************************
*
** Released by: WEBENCH Design Center,Texas Instruments Inc.
* Part: LM4041_N
* Date: 08APR2013
* Model Type: TRANSIENT
* Simulator: PSPICE
* Simulator Version: 16.0.0
* EVM Order Number: N/A
* EVM Users Guide: N/A
* Datasheet: SNOS641D-MAY 2004-REVISED APRIL 2005
*
* Model Version: Final 1.00
*
*****************************************************************************
*
* Updates:
*
* Final 1.00
* Release to Web.
*
******************************************************************************
.SUBCKT LM4041_N_ADJC1P233 FB V+ V- PARAMS: TOL=1 
$CDNENCSTART
eee8c5c7a2bc4b01f045f303678664e7916da0bae22e8cb0bba041dd67c69ce448ea70148a9ac1670c8926c1ac5057c8ccfcd77bf87ca9dce0570d6bc71f490c
5352ed9a7eaf74a9706b807646b803715fdf4fcd929a7e146562599a7177ca86478a87bc5b8e6cf9e7320a2d7af7442d04864adeb3606c0f81ec5619d2c648ba
3724d3f37eeea07f5afe4f8e0010b28d4f812f67b5d83701454e92c4ac0803e0a98283774c731a924e523bfdb494695e58bf1d220978b65b59b1af649d6ab59b
fcfac5a776b3c7daaf14b7c938fb7d38125876ca529fbcd60fa3edc537cd0d17f9715f7ddd5ff1399bbe1c75e8c008d5ea99a58b30d2070f31c275f8857a2bdc
64053fbe649decb85afe4f8e0010b28d78bbda26dbc77342318820ea660f51957345d1dbe157591b246f665bedad4c9dd771f29b3b67ed0f83f46e911818a5e1
a0930926c771b6cd5afe4f8e0010b28da8b4f6ad32f83d265aaab1900850ac2f7345d1dbe157591b006fd8f4a33ce7b7a68808dafc04b46d59695fdf61e1b703
252f4c842243ec93adfbfde0a93715cd571b883c7a34092c6af16ebc99a23710ef89349e3b92da5325455069ceb076b8435038f405ce96194b5e1ec95a9540d1
3e357ee55c14488aadfbfde0a93715cde55cefd606b8e73ba0bc3dc52ad2f46f6fb1d233ade4c007a725a4dc88644efca68808dafc04b46d59695fdf61e1b703
4b85b686fcf7403d0302a8c30efa8edde04124705b9fa056111f24db61775ec0e9ebdf6af31887bf226a7c067aead4e825455069ceb076b85fb28eabead68cdf
717cdf892ff6b6ffd05ee9f4a2babc05036aac3408917ef0a7a44656b8ab3cdd478a87bc5b8e6cf9e7320a2d7af7442d04864adeb3606c0f81ec5619d2c648ba
e96aaee4f78c19f45afe4f8e0010b28dc094ef2aee302ab2c61bc278adc9ccd4f71d3bc7f7d3e460246f665bedad4c9dd771f29b3b67ed0f83f46e911818a5e1
904e90e8e5b2fbfd5afe4f8e0010b28df813c9134970ea75fc2e85c1f050ec15478a87bc5b8e6cf9e7320a2d7af7442d04864adeb3606c0f81ec5619d2c648ba
4f75e2444c7e47605afe4f8e0010b28d7eb9d962e3af691e2ac242761e3b7763a67e7a96e2ecce82ef89349e3b92da5325455069ceb076b85fb28eabead68cdf
cec16ac1ee44e4c7706b807646b80371c3ec949a6f44320915c70963aea2cadbae00ac7d1db53cb63ecfb4feaf868f204e523bfdb494695e9d9e142f344bd1a6
5637fcfd860683a95afe4f8e0010b28d7a25f37a3b4248a2bbc56299c191d6549645e0dd9984026ed406cbbff29f1ccc775990a5ef4d1c88dc86c6ebf6c8c671
0b9df3e93ec616265afe4f8e0010b28d7a85ffc4eb5565632ac242761e3b7763a67e7a96e2ecce823330ba1d5ebc0153a68808dafc04b46d59695fdf61e1b703
ccda5ee1e6c26ff65afe4f8e0010b28d504dbe129bb0cf22058e66d55c8e8c33089eb3aee0d92af8a68808dafc04b46d1b60dc3779042b12c8928a889f72a39a
705d459f50f7a08c9e031e0d8580ec80ecb26c1d6ad112d145651cfa58d042df9645e0dd9984026ed406cbbff29f1ccc775990a5ef4d1c88dc86c6ebf6c8c671
88d8cffec4b073add48eff679202ff9015c70963aea2cadb3d4c1027153cbbe89645e0dd9984026ed406cbbff29f1ccc775990a5ef4d1c88dc86c6ebf6c8c671
b90e0c5fe970b387adfbfde0a93715cdba29ee0850c7f4034d559955d8a585548c0fab00abef36a99bbe1c75e8c008d5ea99a58b30d2070f31c275f8857a2bdc
7ccb825fdd22996e706b807646b80371f4d44dad3a0250ef462343c94bc963112cebe04b8d65779af45be999de0153f89d94d0c4d7980de1a3089b4abd32a0c7
5bc64a788665fcf906c51131619f1ce8e7320a2d7af7442d04864adeb3606c0f0b6f8b512c2a6addbdee282df89d8d104b86ff32235ddcfb2d7082876f024a5c
e9dc2a28e35b84aa25455069ceb076b8435038f405ce9619e439eecba71eedbbc20799e48adeb949449b5615ec9d7c2aace60dae2826d6a1c041f1802d2b2276
f966d44174846ac2d48eff679202ff9038eba488ced47f99e0d3ea6e7ba1828d9bbe1c75e8c008d5ea99a58b30d2070f85a6d5cfe19937682d62d4aa0ee9aca4
f7bb42a6e0b7b8ea5afe4f8e0010b28db4dfb553120bcf58736eb7845dc9c8a4878bea79f8aeb87e25455069ceb076b8435038f405ce96194b5e1ec95a9540d1
4743e78444a105678bf65c1400651a283db875c15925d2f2fa9209d507cec333ef66f270e2da7d19a68808dafc04b46d1b60dc3779042b12c8928a889f72a39a
05b3dfb6045ef4bdc9bd7fb4b7e49c4ae8353ef3b6a5b2bd7ed858dc60378db176be17a5d24149f84e523bfdb494695e58bf1d220978b65b59b1af649d6ab59b
86ad213343ec82a9187ab7d105e374c724f7a488c8ac86d755976fbc7c4b2b81ef66f270e2da7d19a68808dafc04b46d1b60dc3779042b12c8928a889f72a39a
03edf31e48a16cdc5afe4f8e0010b28d10929b958141caa452528204d6c6df96e7a4c5da97176f629bbe1c75e8c008d5ea99a58b30d2070f31c275f8857a2bdc
d0c5ec82a502e3bcadfbfde0a93715cd5cca6c48afd7c467a0bc3dc52ad2f46f6fb1d233ade4c007a725a4dc88644efca68808dafc04b46d59695fdf61e1b703
c0ff0c48b49f7f33c9bd7fb4b7e49c4a9a11b4f0290509423934da9ad7004c019645e0dd9984026ed406cbbff29f1ccc775990a5ef4d1c88dc86c6ebf6c8c671
7060d0fe073057e7a665d0fac02ce03ec593b7f1153c576be380d03eb0ca8440ff3863bf4c9cdd77ef66f270e2da7d19a68808dafc04b46d59695fdf61e1b703
8f10d309634521e55afe4f8e0010b28d661ec81f6f4c84f35e6a212a8dd9ea14354e12fe1d38f3f5246f665bedad4c9dd771f29b3b67ed0f83f46e911818a5e1
4036fe3bb1fccadc5afe4f8e0010b28da31bf5dd73313a932bfffc88defdcec2e344ad5b94e2c339d26d99a5c98243378c0fab00abef36a9c0d4379ad3b52a03
ca126c6c791a93365afe4f8e0010b28d1f810a24345d3df2dd635e737585d10ba67e7a96e2ecce8244c4fd4bc1c482054e523bfdb494695e9d9e142f344bd1a6
868b72e5e69b43855afe4f8e0010b28db4681d25751510af03e7aed81fd5f83ca6836e25b0915d7fe87a304ecbac3ddaa68808dafc04b46d59695fdf61e1b703
e45aafc4c531f5745afe4f8e0010b28d12bb7b7d190eea502a1be9dc9452b4e04a19f02e7aae1429246f665bedad4c9dd771f29b3b67ed0f83f46e911818a5e1
065ff8608303b4ffaf14b7c938fb7d38f4eec5257cb54f111d39a73aeec08144f9715f7ddd5ff1399bbe1c75e8c008d5ea99a58b30d2070f31c275f8857a2bdc
449ae8749da64effadfbfde0a93715cd357e7b8d0f28e58f6af16ebc99a2371064d17c2918af2ec53a273e80351e444218ba5d1b1400d1b231b36d82437566a3
a4ffa12705fb573e5afe4f8e0010b28d661ec81f6f4c84f3fbab866b406f36ada67e7a96e2ecce82b1d44ea271fe01754e523bfdb494695e9d9e142f344bd1a6
c155bdf057a3d325af14b7c938fb7d38c7712dd8ccfd1a483a60e575875062d8e9ebdf6af31887bf9f5e5e6e14cf8df925455069ceb076b85fb28eabead68cdf
b9ed3e04d2a7932992d19702986372a47cbea8b23a41942039c64514a9078f989645e0dd9984026ed406cbbff29f1ccc775990a5ef4d1c88dc86c6ebf6c8c671
444d41ff14fa3f215afe4f8e0010b28dfd2d411db122c8237e04d40d72aa1925478a87bc5b8e6cf9e7320a2d7af7442d04864adeb3606c0f81ec5619d2c648ba
3b59b36ad64eb5865afe4f8e0010b28d594cafa798a8a9883a5b22640ea40098ef66f270e2da7d19a68808dafc04b46d1b60dc3779042b12c8928a889f72a39a
b50196b9367f04075afe4f8e0010b28d9914cdb57e61b4afc19ccc011052f5769bbe1c75e8c008d5ea99a58b30d2070f85a6d5cfe19937682d62d4aa0ee9aca4
94fab6a88c3a1cac5afe4f8e0010b28df8ffa1c594b77edc48be8aace7175381ef66f270e2da7d19a68808dafc04b46d1b60dc3779042b12c8928a889f72a39a
f438d5e86becb167fb6c4a8583801127c89b8e88baf6656cde9edef0ef786492089eb3aee0d92af8a68808dafc04b46d1b60dc3779042b12c8928a889f72a39a
7060d0fe073057e7cd9f9b0fe66d8ad1a9dacbd417af11fbbe1a7ea01b9a816b354e12fe1d38f3f5246f665bedad4c9dd771f29b3b67ed0f83f46e911818a5e1
40ff64b82c572c495afe4f8e0010b28d27bee9a978b6b30b0032453a7856ad56354e12fe1d38f3f5246f665bedad4c9dd771f29b3b67ed0f83f46e911818a5e1
e83d563d614d5ce99e031e0d8580ec80ee891e43fb604a98bd8cfdb5c4c462063ecfb4feaf868f204e523bfdb494695e58bf1d220978b65b59b1af649d6ab59b
e0bee0f3fadd6724adfbfde0a93715cd2f2c258e0d14071a9edf194645c24c108c0fab00abef36a99bbe1c75e8c008d5ea99a58b30d2070f31c275f8857a2bdc
*
992e54e4d43a1f0fcf09340bd0d5f5ff4955749bf7e52f782a79b7faefc5c3cda68808dafc04b46d1b60dc3779042b12db945c2c8994cf81ce1376c978dd9851
99958ef48c8369a89bbe1c75e8c008d5ea99a58b30d2070f85a6d5cfe1993768ff66a236820984040989145ac9cc8da407b9b298b965aa1e360e16da275aa74d
498d7e4dcb150e8e16f86285c2cb91c0a05cdd5f747f76473a273e80351e444218ba5d1b1400d1b2d5af076eba5a52851c45530e7883736b9cab798a7471fe1e
95063ffcc357695780ead3b6ae67f768d771f29b3b67ed0f7be9249ea6218d51497140dc734e149ac072fd1bd017e12e01380bc9e8c1b6b82f67ec4c84c9aa16
3bf11de2e2529ba816f86285c2cb91c05109cafbc770d9d23a273e80351e444218ba5d1b1400d1b2d5af076eba5a52851c45530e7883736b9cab798a7471fe1e
ce3f334df7442e4d6b99906cb1d5e8f018d9508a5c86edbd4e523bfdb494695e58bf1d220978b65bf596d9384f53a9c4b2b2927f0efde5f1c83cd170300af5da
e8765672477d963590d770d89657cb8d706b807646b803719bbe1c75e8c008d5ea99a58b30d2070f85a6d5cfe1993768ff66a23682098404ced996fd50f8ec7d
b6f3736230abe961ec7bed061d206a8f5dbac63cd05c269ae7320a2d7af7442d04864adeb3606c0f0b6f8b512c2a6addbdee282df89d8d1005f2f9dbc096ac10
fbf012923915ae39f8edecf7078a94e7706b807646b80371661c6c5a6c3f664f3a273e80351e444218ba5d1b1400d1b2d5af076eba5a5285d50a0be435c3cdf8
*+ VDD    5            
*+ XPART    0            
*
6cb956a7405c965e9d1265e81dc80fdfb857a96079dd56ecc117b1cd094d435db7e075afda40f95f1cfb20439c845924a68808dafc04b46d59695fdf61e1b703
*+ ne=3 CJE=.2pF CJC=4pF TF=8ns
*
*+ Bf=40
*
f62e713a3caeeaeeb37e0e3862d4854c75fb4ba62eeb9cb7b504c8c26fefae5875367bca7eae61834e523bfdb494695e58bf1d220978b65b59b1af649d6ab59b
*
f62e713a3caeeaee0f17ef232aaf3ca78587617f274ca023fa71c17d1fc7f7181d64ddcfacf2d2413a273e80351e444218ba5d1b1400d1b231b36d82437566a3
*+ CJE=1pF
*
*
d6f9f76e50b87b51b1a0e2cca76c0e45587050638c155c453d5149c76957e151f16ea7ea3fd2550b0dbeb8d74e6dc669dd39cb5bd6a03783fc2b5a63bdf362e6
1e0b22458c9e013c706b807646b80371d97f371f7279397dd87b17a839788ddc9b73820c3d345231b3323f8554552caefa8c91cce1d2792c0545fc4817cf0738
dc99c82b4f5239959bbe1c75e8c008d5ea99a58b30d2070f85a6d5cfe1993768ff66a236820984040989145ac9cc8da407b9b298b965aa1e360e16da275aa74d
*
$CDNENCFINISH
.ENDS  LM4041_N_ADJC1P233
*$
